examples/feeders/1_MIRA_1/008_segmentoBT.dss
New Line.SBT_13712 phases=2 bus1=BT24321.2.4 bus2=BT638991.2.4 linecode=60_2 length=0.0927 units=km
New Line.SBT_15678 phases=3 bus1=BT56511.1.2.4 bus2=BT386261.1.2.4 linecode=44_3 length=0.04534 units=km
New Line.SBT_21937 phases=3 bus1=BT24351.1.2.4 bus2=BT24341.1.2.4 linecode=44_3 length=0.0993 units=km
New Line.SBT_21938 phases=2 bus1=BT56511.1.4 bus2=BT56531.1.4 linecode=60_2 length=0.14773 units=km
New Line.SBT_21939 phases=3 bus1=BT24311.1.2.4 bus2=BT24321.1.2.4 linecode=44_3 length=0.09339 units=km
New Line.SBT_22055 phases=2 bus1=BT56531.1.4 bus2=BT56551.1.4 linecode=60_2 length=0.07424 units=km
New Line.SBT_22080 phases=3 bus1=ET12_1013.1.2.4 bus2=BT24391.1.2.4 linecode=44_3 length=0.08782 units=km
New Line.SBT_22081 phases=3 bus1=BT24391.1.2.4 bus2=BT24421.1.2.4 linecode=44_3 length=0.0958 units=km
New Line.SBT_22082 phases=2 bus1=BT24351.1.4 bus2=BT24361.1.4 linecode=60_2 length=0.08238 units=km
New Line.SBT_6022 phases=2 bus1=BT24421.1.4 bus2=BT56501.1.4 linecode=60_2 length=0.09571 units=km
New Line.SBT_6023 phases=3 bus1=BT24341.1.2.4 bus2=BT24311.1.2.4 linecode=44_3 length=0.09688 units=km
New Line.SBT_6230 phases=2 bus1=BT56531.1.4 bus2=BT56541.1.4 linecode=60_2 length=0.05391 units=km
New Line.SBT_6268 phases=2 bus1=ET12_1013.1.4 bus2=BT24381.1.4 linecode=60_2 length=0.08956 units=km
New Line.SBT_6269 phases=3 bus1=ET12_1013.1.2.4 bus2=BT24351.1.2.4 linecode=44_3 length=0.113 units=km
New Line.SBT_6270 phases=3 bus1=BT24421.1.2.4 bus2=BT56511.1.2.4 linecode=44_3 length=0.09301 units=km
New Line.SBT_6462 phases=3 bus1=BT24321.1.2.4 bus2=BT24331.1.2.4 linecode=44_3 length=0.07041 units=km
New Line.SBT_27372 phases=3 bus1=ET12_1014.1.2.4 bus2=BT386311.1.2.4 linecode=59_3 length=0.04571 units=km
New Line.SBT_18250 phases=3 bus1=BT24201.1.2.4 bus2=BT24211.1.2.4 linecode=59_3 length=0.10526 units=km
New Line.SBT_7515 phases=3 bus1=ET12_1014.1.2.4 bus2=BT24131.1.2.4 linecode=59_3 length=0.0959 units=km
New Line.SBT_7516 phases=3 bus1=BT24131.1.2.4 bus2=BT24141.1.2.4 linecode=59_3 length=0.06061 units=km
New Line.SBT_7517 phases=3 bus1=BT24171.1.2.4 bus2=BT24181.1.2.4 linecode=59_3 length=0.0769 units=km
New Line.SBT_7518 phases=3 bus1=BT24131.1.2.4 bus2=BT24151.1.2.4 linecode=59_3 length=0.04763 units=km
New Line.SBT_7519 phases=3 bus1=BT24181.1.2.4 bus2=BT24191.1.2.4 linecode=59_3 length=0.10847 units=km
New Line.SBT_7520 phases=3 bus1=BT24191.1.2.4 bus2=BT24201.1.2.4 linecode=59_3 length=0.08591 units=km
New Line.SBT_7521 phases=3 bus1=BT24151.1.2.4 bus2=BT24161.1.2.4 linecode=44_3 length=0.19491 units=km
New Line.SBT_7639 phases=3 bus1=BT386311.1.2.4 bus2=BT24171.1.2.4 linecode=59_3 length=0.03517 units=km
New Line.SBT_8197 phases=2 bus1=BT24211.1.4 bus2=BT386331.1.4 linecode=60_2 length=0.05201 units=km
New Line.SBT_7744 phases=3 bus1=ET12_1015.1.2.4 bus2=BT24051.1.2.4 linecode=44_3 length=0.07801 units=km
New Line.SBT_7522 phases=3 bus1=BT42422.1.2.4 bus2=BT24031.1.2.4 linecode=44_3 length=0.1 units=km
New Line.SBT_7553 phases=3 bus1=BT24101.1.2.4 bus2=BT24221.1.2.4 linecode=44_3 length=0.09702 units=km
New Line.SBT_7554 phases=2 bus1=BT24221.1.4 bus2=BT24231.1.4 linecode=60_2 length=0.07211 units=km
New Line.SBT_22815 phases=3 bus1=BT42422.1.2.4 bus2=BT42341.1.2.4 linecode=44_3 length=0.08823 units=km
New Line.SBT_22816 phases=3 bus1=BT24051.1.2.4 bus2=BT42422.1.2.4 linecode=44_3 length=0.10124 units=km
New Line.SBT_22819 phases=2 bus1=BT24081.1.4 bus2=BT24091.1.4 linecode=60_2 length=0.07201 units=km
New Line.SBT_22820 phases=3 bus1=BT24081.1.2.4 bus2=BT24101.1.2.4 linecode=44_3 length=0.09713 units=km
New Line.SBT_22960 phases=3 bus1=ET12_1015.1.2.4 bus2=BT24081.1.2.4 linecode=44_3 length=0.09519 units=km
New Line.SBT_22932 phases=3 bus1=ET12_1015.1.2.4 bus2=BT24071.1.2.4 linecode=44_3 length=0.05954 units=km
New Line.SBT_29021 phases=3 bus1=BT24031.1.2.4 bus2=BT24041.1.2.4 linecode=44_3 length=0.035 units=km
New Line.SBT_5897 phases=3 bus1=BT42101.1.2.4 bus2=BT42111.1.2.4 linecode=44_3 length=0.07527 units=km
New Line.SBT_5898 phases=2 bus1=BT42071.1.4 bus2=BT42081.1.4 linecode=60_2 length=0.09608 units=km
New Line.SBT_5879 phases=3 bus1=ET12_1016.1.2.4 bus2=BT42091.1.2.4 linecode=44_3 length=0.11166 units=km
New Line.SBT_5880 phases=3 bus1=ET12_1016.1.2.4 bus2=BT42051.1.2.4 linecode=44_3 length=0.09552 units=km
New Line.SBT_6090 phases=3 bus1=BT42281.1.2.4 bus2=BT42291.1.2.4 linecode=44_3 length=0.10262 units=km
New Line.SBT_6091 phases=3 bus1=BT42091.1.2.4 bus2=BT42101.1.2.4 linecode=44_3 length=0.07669 units=km
New Line.SBT_5837 phases=2 bus1=BT42051.1.4 bus2=BT42061.1.4 linecode=60_2 length=0.07843 units=km
New Line.SBT_5838 phases=3 bus1=BT23231.1.2.4 bus2=BT23201.1.2.4 linecode=44_3 length=0.0886 units=km
New Line.SBT_22830 phases=3 bus1=ET12_1016.1.2.4 bus2=BT42281.1.2.4 linecode=44_3 length=0.07816 units=km
New Line.SBT_22325 phases=3 bus1=BT23251.1.2.4 bus2=BT23231.1.2.4 linecode=44_3 length=0.10481 units=km
New Line.SBT_21834 phases=2 bus1=BT42061.1.4 bus2=BT42071.1.4 linecode=60_2 length=0.10204 units=km
New Line.SBT_21870 phases=3 bus1=BT23231.1.2.4 bus2=BT23241.1.2.4 linecode=44_3 length=0.08515 units=km
New Line.SBT_7567 phases=3 bus1=ET12_1016.1.2.4 bus2=BT23251.1.2.4 linecode=44_3 length=0.09808 units=km
New Line.SBT_6721 phases=3 bus1=ET12_1017.1.2.4 bus2=BT58831.1.2.4 linecode=44_3 length=0.08065 units=km
New Line.SBT_6722 phases=3 bus1=BT58831.1.2.4 bus2=BT58841.1.2.4 linecode=44_3 length=0.07473 units=km
New Line.SBT_21221 phases=3 bus1=BT58841.1.2.4 bus2=BT58851.1.2.4 linecode=44_3 length=0.07117 units=km
New Line.SBT_5914 phases=2 bus1=BT58851.1.4 bus2=BT59541.1.4 linecode=60_2 length=0.14533 units=km
New Line.SBT_5915 phases=3 bus1=ET12_1027.1.2.4 bus2=BT42221.1.2.4 linecode=44_3 length=0.03883 units=km
New Line.SBT_5134 phases=2 bus1=BT42251.1.4 bus2=BT301751.1.4 linecode=62_2 length=0.08324 units=km
New Line.SBT_6187 phases=2 bus1=BT42201.1.4 bus2=BT527441.1.4 linecode=60_2 length=0.07041 units=km
New Line.SBT_21878 phases=3 bus1=ET12_1027.1.2.4 bus2=BT42241.1.2.4 linecode=44_3 length=0.11459 units=km
New Line.SBT_21879 phases=3 bus1=ET12_1027.1.2.4 bus2=BT42201.1.2.4 linecode=44_3 length=0.11129 units=km
New Line.SBT_22947 phases=3 bus1=BT42241.1.2.4 bus2=BT42251.1.2.4 linecode=44_3 length=0.08828 units=km
New Line.SBT_7770 phases=2 bus1=ET12_1027.1.4 bus2=BT42231.1.4 linecode=60_2 length=0.20136 units=km
New Line.SBT_7771 phases=3 bus1=BT42251.1.2.4 bus2=BT42261.1.2.4 linecode=44_3 length=0.11328 units=km
New Line.SBT_7787 phases=2 bus1=BT57771.2.4 bus2=BT57781.2.4 linecode=60_2 length=0.058 units=km
New Line.SBT_22123 phases=2 bus1=BT57751.2.4 bus2=BT57741.2.4 linecode=60_2 length=0.0712 units=km
New Line.SBT_22153 phases=2 bus1=BT57741.2.4 bus2=BT57721.2.4 linecode=60_2 length=0.09872 units=km
New Line.SBT_22110 phases=2 bus1=ET12_1122.2.4 bus2=BT57751.2.4 linecode=60_2 length=0.10791 units=km
New Line.SBT_6347 phases=2 bus1=BT57751.2.4 bus2=BT57841.2.4 linecode=60_2 length=0.09701 units=km
New Line.SBT_6322 phases=2 bus1=BT57771.2.4 bus2=BT57791.2.4 linecode=60_2 length=0.06685 units=km
New Line.SBT_31763 phases=2 bus1=ET12_1122.2.4 bus2=BT57771.2.4 linecode=60_2 length=0.07741 units=km
New Line.SBT_36345 phases=2 bus1=BT819031.2.4 bus2=BT57801.2.4 linecode=62_2 length=0.06403 units=km
New Line.SBT_36346 phases=2 bus1=BT57771.2.4 bus2=BT819031.2.4 linecode=62_2 length=0.0351 units=km
New Line.SBT_30735 phases=3 bus1=BT763521.1.2.4 bus2=BT61671.1.2.4 linecode=44_3 length=0.08109 units=km
New Line.SBT_30736 phases=3 bus1=ET12_1123.1.2.4 bus2=BT763521.1.2.4 linecode=44_3 length=0.06051 units=km
New Line.SBT_29022 phases=2 bus1=ET12_1123.1.4 bus2=BT61651.1.4 linecode=60_2 length=0.07887 units=km
New Line.SBT_18038 phases=2 bus1=BT61671.2.4 bus2=BT330481.2.4 linecode=62_2 length=0.04205 units=km
New Line.SBT_17983 phases=3 bus1=BT8041.1.2.4 bus2=BT69541.1.2.4 linecode=44_3 length=0.04342 units=km
New Line.SBT_22008 phases=2 bus1=BT61581.2.4 bus2=BT61591.2.4 linecode=60_2 length=0.07661 units=km
New Line.SBT_22018 phases=2 bus1=BT61591.2.4 bus2=BT61601.2.4 linecode=60_2 length=0.0922 units=km
New Line.SBT_22019 phases=3 bus1=BT8051.1.2.4 bus2=BT8061.1.2.4 linecode=44_3 length=0.10345 units=km
New Line.SBT_6161 phases=3 bus1=BT69541.1.2.4 bus2=BT8051.1.2.4 linecode=44_3 length=0.05423 units=km
New Line.SBT_6164 phases=3 bus1=BT8061.1.2.4 bus2=BT8071.1.2.4 linecode=44_3 length=0.05334 units=km
New Line.SBT_6146 phases=3 bus1=ET12_1124.1.2.4 bus2=BT61581.1.2.4 linecode=44_3 length=0.09213 units=km
New Line.SBT_6147 phases=3 bus1=ET12_1124.1.2.4 bus2=BT8041.1.2.4 linecode=44_3 length=0.08215 units=km
New Line.SBT_6148 phases=3 bus1=BT61581.1.2.4 bus2=BT61561.1.2.4 linecode=44_3 length=0.0942 units=km
New Line.SBT_6167 phases=2 bus1=BT3861.1.4 bus2=BT55211.1.4 linecode=60_2 length=0.39224 units=km
New Line.SBT_6150 phases=3 bus1=ET12_1125.1.2.4 bus2=BT3861.1.2.4 linecode=44_3 length=0.10341 units=km
New Line.SBT_26676 phases=3 bus1=ET12_1125.1.2.4 bus2=BT306681.1.2.4 linecode=44_3 length=0.14025 units=km
New Line.SBT_30473 phases=3 bus1=BT63212.1.2.4 bus2=BT311871.1.2.4 linecode=44_3 length=0.03581 units=km
New Line.SBT_30471 phases=3 bus1=BT63201.1.2.4 bus2=BT63212.1.2.4 linecode=44_3 length=0.08824 units=km
New Line.SBT_22010 phases=3 bus1=BT3861.1.2.4 bus2=BT3881.1.2.4 linecode=44_3 length=0.08809 units=km
New Line.SBT_18469 phases=3 bus1=BT306681.1.2.4 bus2=BT63201.1.2.4 linecode=44_3 length=0.04405 units=km
New Line.SBT_14301 phases=2 bus1=BT306681.2.4 bus2=BT624791.2.4 linecode=62_2 length=0.07679 units=km
New Line.SBT_18473 phases=3 bus1=BT63901.1.2.4 bus2=BT63891.1.2.4 linecode=59_3 length=0.06003 units=km
New Line.SBT_22184 phases=3 bus1=ET12_1126.1.2.4 bus2=BT63911.1.2.4 linecode=59_3 length=0.08683 units=km
New Line.SBT_22796 phases=3 bus1=BT63931.1.2.4 bus2=BT63941.1.2.4 linecode=59_3 length=0.03437 units=km
New Line.SBT_7508 phases=3 bus1=ET12_1126.1.2.4 bus2=BT63931.1.2.4 linecode=59_3 length=0.11611 units=km
New Line.SBT_7003 phases=3 bus1=BT63911.1.2.4 bus2=BT63901.1.2.4 linecode=59_3 length=0.10296 units=km
New Line.SBT_7509 phases=3 bus1=ET12_1127.1.2.4 bus2=BT45871.1.2.4 linecode=80_3 length=0.06989 units=km
New Line.SBT_7510 phases=3 bus1=BT45871.1.2.4 bus2=BT45881.1.2.4 linecode=80_3 length=0.0878 units=km
New Line.SBT_22797 phases=2 bus1=BT45801.1.4 bus2=BT45111.1.4 linecode=60_2 length=0.07393 units=km
New Line.SBT_25943 phases=2 bus1=BT45881.2.4 bus2=BT301731.2.4 linecode=62_2 length=0.04301 units=km
New Line.SBT_18475 phases=2 bus1=ET12_1127.1.4 bus2=BT45801.1.4 linecode=67_2 length=0.20375 units=km
New Line.SBT_13096 phases=2 bus1=BT301731.2.4 bus2=BT301741.2.4 linecode=62_2 length=0.10469 units=km
New Line.SBT_16248 phases=3 bus1=BT64102.1.2.4 bus2=BT64111.1.2.4 linecode=44_3 length=0.16398 units=km
New Line.SBT_22477 phases=2 bus1=BT64111.1.4 bus2=BT64121.1.4 linecode=60_2 length=0.21745 units=km
New Line.SBT_7029 phases=3 bus1=ET12_1134.1.2.4 bus2=BT64102.1.2.4 linecode=44_3 length=0.11102 units=km
New Line.SBT_7030 phases=2 bus1=ET12_1134.2.4 bus2=BT64081.2.4 linecode=60_2 length=0.09713 units=km
New Line.SBT_6964 phases=2 bus1=ET12_1134.1.4 bus2=BT64091.1.4 linecode=60_2 length=0.14 units=km
New Line.SBT_6977 phases=3 bus1=BT14811.1.2.4 bus2=BT14881.1.2.4 linecode=44_3 length=0.16162 units=km
New Line.SBT_6978 phases=3 bus1=ET12_1135.1.2.4 bus2=BT14841.1.2.4 linecode=44_3 length=0.06847 units=km
New Line.SBT_6979 phases=3 bus1=BT14881.1.2.4 bus2=BT29731.1.2.4 linecode=44_3 length=0.06586 units=km
New Line.SBT_23207 phases=2 bus1=BT14861.1.4 bus2=BT14871.1.4 linecode=60_2 length=0.09305 units=km
New Line.SBT_33896 phases=3 bus1=ET12_1135.1.2.4 bus2=BT795791.1.2.4 linecode=44_3 length=0.04979 units=km
New Line.SBT_33897 phases=2 bus1=ET12_1135.1.4 bus2=BT795801.1.4 linecode=60_2 length=0.07036 units=km
New Line.SBT_33882 phases=3 bus1=BT14821.1.2.4 bus2=BT14811.1.2.4 linecode=44_3 length=0.06493 units=km
New Line.SBT_33883 phases=3 bus1=BT795791.1.2.4 bus2=BT14821.1.2.4 linecode=44_3 length=0.07185 units=km
New Line.SBT_33885 phases=2 bus1=BT795801.1.4 bus2=BT14851.1.4 linecode=60_2 length=0.04453 units=km
New Line.SBT_33886 phases=2 bus1=BT14851.1.4 bus2=BT14861.1.4 linecode=60_2 length=0.1241 units=km
New Line.SBT_23539 phases=3 bus1=ET12_1426.1.2.4 bus2=BT63351.1.2.4 linecode=44_3 length=0.1739 units=km
New Line.SBT_22564 phases=2 bus1=BT63351.1.4 bus2=BT343641.1.4 linecode=60_2 length=0.08013 units=km
New Line.SBT_7116 phases=2 bus1=BT63351.2.4 bus2=BT343651.2.4 linecode=60_2 length=0.03421 units=km
New Line.SBT_8812 phases=3 bus1=ET12_1426.1.2.4 bus2=BT45151.1.2.4 linecode=44_3 length=0.07998 units=km
New Line.SBT_8813 phases=2 bus1=BT45151.1.4 bus2=BT45161.1.4 linecode=60_2 length=0.08914 units=km
New Line.SBT_7389 phases=2 bus1=ET12_1427.1.4 bus2=BT75241.1.4 linecode=60_2 length=0.07524 units=km
New Line.SBT_7390 phases=2 bus1=BT75241.1.4 bus2=BT2551.1.4 linecode=60_2 length=0.1252 units=km
New Line.SBT_7404 phases=4 bus1=BT342322.1.2.3.4 bus2=BT342361.1.2.3.4 linecode=75_4 length=0.03688 units=km
New Line.SBT_7438 phases=4 bus1=BT45901.1.2.3.4 bus2=BT342291.1.2.3.4 linecode=75_4 length=0.0228 units=km
New Line.SBT_7439 phases=4 bus1=BT45901.1.2.3.4 bus2=BT45911.1.2.3.4 linecode=73_4 length=0.01612 units=km
New Line.SBT_7461 phases=4 bus1=BT342342.1.2.3.4 bus2=BT310921.1.2.3.4 linecode=75_4 length=0.01 units=km
New Line.SBT_7462 phases=4 bus1=BT342381.1.2.3.4 bus2=BT342391.1.2.3.4 linecode=75_4 length=0.01456 units=km
New Line.SBT_7463 phases=4 bus1=BT635451.1.2.3.4 bus2=BT310941.1.2.3.4 linecode=75_4 length=0.0405 units=km
New Line.SBT_7610 phases=4 bus1=BT342411.1.2.3.4 bus2=BT342421.1.2.3.4 linecode=75_4 length=0.02729 units=km
New Line.SBT_8104 phases=4 bus1=BT342401.1.2.3.4 bus2=BT342411.1.2.3.4 linecode=75_4 length=0.025 units=km
New Line.SBT_7660 phases=4 bus1=BT342361.1.2.3.4 bus2=BT342371.1.2.3.4 linecode=75_4 length=0.01334 units=km
New Line.SBT_7661 phases=4 bus1=BT342371.1.2.3.4 bus2=BT342381.1.2.3.4 linecode=75_4 length=0.0272 units=km
New Line.SBT_7207 phases=4 bus1=BT45911.1.2.3.4 bus2=BT295691.1.2.3.4 linecode=73_4 length=0.02693 units=km
New Line.SBT_7209 phases=4 bus1=BT342291.1.2.3.4 bus2=BT342301.1.2.3.4 linecode=75_4 length=0.0313 units=km
New Line.SBT_7210 phases=4 bus1=BT45931.1.2.3.4 bus2=BT342401.1.2.3.4 linecode=75_4 length=0.02309 units=km
New Line.SBT_22737 phases=4 bus1=ET12_1698.1.2.3.4 bus2=BT342322.1.2.3.4 linecode=75_4 length=0.03437 units=km
New Line.SBT_22769 phases=4 bus1=BT310921.1.2.3.4 bus2=BT310931.1.2.3.4 linecode=75_4 length=0.0197 units=km
New Line.SBT_22883 phases=4 bus1=BT342331.1.2.3.4 bus2=BT342342.1.2.3.4 linecode=75_4 length=0.03536 units=km
New Line.SBT_22884 phases=4 bus1=BT342421.1.2.3.4 bus2=BT342431.1.2.3.4 linecode=75_4 length=0.02285 units=km
New Line.SBT_22855 phases=4 bus1=BT342322.1.2.3.4 bus2=BT342331.1.2.3.4 linecode=75_4 length=0.02766 units=km
New Line.SBT_16364 phases=3 bus1=BT583681.1.2.4 bus2=BT671161.1.2.4 linecode=91_3 length=0.0255 units=km
New Line.SBT_16366 phases=2 bus1=BT310941.1.4 bus2=BT671311.1.4 linecode=62_2 length=0.04368 units=km
New Line.SBT_13643 phases=4 bus1=BT583662.1.2.3.4 bus2=BT310952.1.2.3.4 linecode=16_4 length=0.01334 units=km
New Line.SBT_13644 phases=3 bus1=BT583662.1.2.4 bus2=BT583681.1.2.4 linecode=91_3 length=0.02354 units=km
New Line.SBT_14338 phases=4 bus1=BT310931.1.2.3.4 bus2=BT635451.1.2.3.4 linecode=75_4 length=0.04052 units=km
New Line.SBT_33264 phases=3 bus1=BT671161.1.2.4 bus2=BT754761.1.2.4 linecode=91_3 length=0.04813 units=km
New Line.SBT_26250 phases=4 bus1=BT342342.1.2.3.4 bus2=BT583662.1.2.3.4 linecode=16_4 length=0.01603 units=km
New Line.SBT_26251 phases=3 bus1=BT583662.1.2.4 bus2=BT583671.1.2.4 linecode=59_3 length=0.0102 units=km
New Line.SBT_27756 phases=2 bus1=BT671311.1.4 bus2=BT671321.1.4 linecode=62_2 length=0.0386 units=km
New Line.SBT_28709 phases=4 bus1=BT295691.1.2.3.4 bus2=BT45921.1.2.3.4 linecode=73_4 length=0.02377 units=km
New Line.SBT_30255 phases=4 bus1=BT45931.1.2.3.4 bus2=BT45901.1.2.3.4 linecode=75_4 length=0.04752 units=km
New Line.SBT_30256 phases=4 bus1=ET12_1698.1.2.3.4 bus2=BT45931.1.2.3.4 linecode=75_4 length=0.01304 units=km
New Line.SBT_22606 phases=3 bus1=BT67171.1.2.4 bus2=BT67181.1.2.4 linecode=44_3 length=0.06546 units=km
New Line.SBT_7182 phases=3 bus1=ET12_1791.1.2.4 bus2=BT67161.1.2.4 linecode=44_3 length=0.02154 units=km
New Line.SBT_6931 phases=3 bus1=ET12_1791.1.2.4 bus2=BT67171.1.2.4 linecode=44_3 length=0.03748 units=km
New Line.SBT_7267 phases=3 bus1=BT62541.1.2.4 bus2=BT330671.1.2.4 linecode=59_3 length=0.11827 units=km
New Line.SBT_22770 phases=3 bus1=ET12_1792.1.2.4 bus2=BT8121.1.2.4 linecode=44_3 length=0.08376 units=km
New Line.SBT_22261 phases=2 bus1=ET12_1792.1.4 bus2=BT62561.1.4 linecode=60_2 length=0.21261 units=km
New Line.SBT_22007 phases=3 bus1=ET12_1792.1.2.4 bus2=BT62541.1.2.4 linecode=44_3 length=0.14921 units=km
New Line.SBT_13645 phases=2 bus1=BT62561.1.4 bus2=BT583691.1.4 linecode=62_2 length=0.03401 units=km
New Line.SBT_6157 phases=2 bus1=BT62541.1.4 bus2=BT62551.1.4 linecode=60_2 length=0.15034 units=km
New Line.SBT_6585 phases=3 bus1=BT330671.1.2.4 bus2=BT330701.1.2.4 linecode=59_3 length=0.10124 units=km
New Line.SBT_6587 phases=2 bus1=BT330701.1.4 bus2=BT330711.1.4 linecode=62_2 length=0.07102 units=km
New Line.SBT_6140 phases=3 bus1=BT8121.1.2.4 bus2=BT8101.1.2.4 linecode=44_3 length=0.16225 units=km
New Line.SBT_6141 phases=2 bus1=BT8101.1.4 bus2=BT8091.1.4 linecode=60_2 length=0.07157 units=km
New Line.SBT_16172 phases=2 bus1=ET12_1879.1.4 bus2=BT714751.1.4 linecode=62_2 length=0.06429 units=km
New Line.SBT_13467 phases=4 bus1=BT551.1.2.3.4 bus2=BT542.1.2.3.4 linecode=73_4 length=0.0689 units=km
New Line.SBT_22017 phases=4 bus1=ET12_2071.1.2.3.4 bus2=BT551.1.2.3.4 linecode=73_4 length=0.10742 units=km
New Line.SBT_22024 phases=4 bus1=BT1311.1.2.3.4 bus2=BT1321.1.2.3.4 linecode=97_4 length=0.04545 units=km
New Line.SBT_6106 phases=4 bus1=ET12_2071.1.2.3.4 bus2=BT1271.1.2.3.4 linecode=73_4 length=0.11236 units=km
New Line.SBT_6160 phases=4 bus1=BT1271.1.2.3.4 bus2=BT1301.1.2.3.4 linecode=97_4 length=0.05048 units=km
New Line.SBT_6176 phases=4 bus1=BT1301.1.2.3.4 bus2=BT1311.1.2.3.4 linecode=97_4 length=0.07829 units=km
New Line.SBT_32319 phases=4 bus1=BT542.1.2.3.4 bus2=BT521.1.2.3.4 linecode=73_4 length=0.0642 units=km
New Line.SBT_22432 phases=4 bus1=ET12_2110.1.2.3.4 bus2=BT326301.1.2.3.4 linecode=75_4 length=0.05573 units=km
New Line.SBT_6884 phases=4 bus1=ET12_2110.1.2.3.4 bus2=BT310961.1.2.3.4 linecode=75_4 length=0.04317 units=km
New Line.SBT_6885 phases=4 bus1=BT310961.1.2.3.4 bus2=BT310951.1.2.3.4 linecode=75_4 length=0.04687 units=km
New Line.SBT_6886 phases=2 bus1=ET12_2118.1.4 bus2=BT164161.1.4 linecode=60_2 length=0.10752 units=km
New Line.SBT_22433 phases=3 bus1=ET12_2118.1.2.4 bus2=BT164181.1.2.4 linecode=44_3 length=0.09666 units=km
New Line.SBT_22434 phases=2 bus1=BT164161.1.4 bus2=BT164171.1.4 linecode=60_2 length=0.12925 units=km
New Line.SBT_22289 phases=3 bus1=ET12_2120.1.2.4 bus2=BT311941.1.2.4 linecode=76_3 length=0.08989 units=km
New Line.SBT_22292 phases=3 bus1=BT311941.1.2.4 bus2=BT311951.1.2.4 linecode=76_3 length=0.10893 units=km
New Line.SBT_25395 phases=2 bus1=BT497621.1.4 bus2=BT311891.1.4 linecode=62_2 length=0.06824 units=km
New Line.SBT_18001 phases=2 bus1=BT311921.1.4 bus2=BT311931.1.4 linecode=77_2 length=0.07359 units=km
New Line.SBT_11035 phases=2 bus1=BT311891.1.4 bus2=BT497651.1.4 linecode=62_2 length=0.0471 units=km
New Line.SBT_11566 phases=2 bus1=ET12_2120.1.4 bus2=BT497621.1.4 linecode=62_2 length=0.08964 units=km
New Line.SBT_14232 phases=2 bus1=BT635831.1.4 bus2=BT635841.1.4 linecode=62_2 length=0.0593 units=km
New Line.SBT_26572 phases=2 bus1=BT311951.1.4 bus2=BT635831.1.4 linecode=62_2 length=0.10231 units=km
New Line.SBT_6636 phases=3 bus1=ET12_2120.1.2.4 bus2=BT311911.1.2.4 linecode=76_3 length=0.08705 units=km
New Line.SBT_6646 phases=2 bus1=BT311911.1.4 bus2=BT311961.1.4 linecode=77_2 length=0.03023 units=km
New Line.SBT_6647 phases=2 bus1=BT311911.1.4 bus2=BT311921.1.4 linecode=77_2 length=0.10837 units=km
New Line.SBT_6648 phases=3 bus1=BT295031.1.2.4 bus2=BT295041.1.2.4 linecode=44_3 length=0.06649 units=km
New Line.SBT_6578 phases=3 bus1=BT649051.1.2.4 bus2=BT328801.1.2.4 linecode=44_3 length=0.06301 units=km
New Line.SBT_6579 phases=2 bus1=BT328801.1.4 bus2=BT328811.1.4 linecode=60_2 length=0.09002 units=km
New Line.SBT_6580 phases=2 bus1=BT343571.1.4 bus2=BT343581.1.4 linecode=77_2 length=0.14066 units=km
New Line.SBT_26233 phases=3 bus1=BT328841.1.2.4 bus2=BT649051.1.2.4 linecode=44_3 length=0.07 units=km
New Line.SBT_22293 phases=3 bus1=ET12_2122.1.2.4 bus2=BT295031.1.2.4 linecode=44_3 length=0.1072 units=km
...
